*SPEF "1481-1998"
*DESIGN "Switch"
*DATE "Mon Dec 20 22:23:46 2021"
*VENDOR "Synopsys, Inc."
*PROGRAM "icc2 /packages/synopsys/icc2/S-2021.06-SP1/linux64/nwtn/bin/icc2_exec"
*VERSION "S-2021.06-SP1 Jul 13, 2021"
*DESIGN_FLOW "ICC2 SPEF DR"
*DIVIDER /
*DELIMITER :
*BUS_DELIMITER [ ]
*T_UNIT 1 NS
*C_UNIT 1 FF
*R_UNIT 1 OHM
*L_UNIT 1 HENRY

// XY_UNIT 1 UM
// PARASITIC_TECH max at 125.000 degree

*NAME_MAP
*1 clock
*2 start
*3 BestDist[7]
*4 BestDist[6]
*5 BestDist[5]
*6 BestDist[4]
*7 BestDist[3]
*8 BestDist[2]
*9 BestDist[1]
*10 BestDist[0]
*11 motionX[3]
*12 motionX[2]
*13 motionX[1]
*14 motionX[0]
*15 motionY[3]
*16 motionY[2]
*17 motionY[1]
*18 motionY[0]
*19 R[7]
*20 R[6]
*21 R[5]
*22 R[4]
*23 R[3]
*24 R[2]
*25 R[1]
*26 R[0]
*27 S1[7]
*28 S1[6]
*29 S1[5]
*30 S1[4]
*31 S1[3]
*32 S1[2]
*33 S1[1]
*34 S1[0]
*35 S2[7]
*36 S2[6]
*37 S2[5]
*38 S2[4]
*39 S2[3]
*40 S2[2]
*41 S2[1]
*42 S2[0]
*43 AddressR[7]
*44 AddressR[6]
*45 AddressR[5]
*46 AddressR[4]
*47 AddressR[3]
*48 AddressR[2]
*49 AddressR[1]
*50 AddressR[0]
*51 AddressS1[9]
*52 AddressS1[8]
*53 AddressS1[7]
*54 AddressS1[6]
*55 AddressS1[5]
*56 AddressS1[4]
*57 AddressS1[3]
*58 AddressS1[2]
*59 AddressS1[1]
*60 AddressS1[0]
*61 AddressS2[9]
*62 AddressS2[8]
*63 AddressS2[7]
*64 AddressS2[6]
*65 AddressS2[5]
*66 AddressS2[4]
*67 AddressS2[3]
*68 AddressS2[2]
*69 AddressS2[1]
*70 AddressS2[0]
*71 ctl_u/count_reg[11]
*72 ctl_u/count_reg[10]
*73 ctl_u/count_reg[9]
*74 ctl_u/count_reg[8]
*75 ctl_u/count_reg[5]
*76 ctl_u/count_reg[4]
*77 ctl_u/count_reg[12]
*78 ctl_u/count_reg[6]
*79 ctl_u/count_reg[2]
*80 ctl_u/count_reg[3]
*81 ctl_u/count_reg[1]
*82 ctl_u/count_reg[0]
*83 ctl_u/count_reg[7]
*84 ctl_u/U11
*85 ctl_u/U12
*86 ctl_u/U13
*87 ctl_u/U14
*88 ctl_u/U15
*89 ctl_u/U16
*90 ctl_u/U17
*91 ctl_u/U18
*92 ctl_u/U19
*93 ctl_u/U20
*94 ctl_u/U21
*95 ctl_u/U22
*96 ctl_u/U23
*97 ctl_u/U24
*98 ctl_u/U25
*99 ctl_u/U26
*100 ctl_u/U27
*101 ctl_u/U28
*102 ctl_u/U29
*103 ctl_u/U30
*104 ctl_u/U31
*105 ctl_u/U32
*106 ctl_u/U33
*107 ctl_u/U34
*108 ctl_u/U35
*109 ctl_u/U36
*110 ctl_u/U37
*111 ctl_u/U38
*112 ctl_u/U39
*113 ctl_u/U40
*114 ctl_u/U41
*115 ctl_u/U42
*116 ctl_u/U43
*117 ctl_u/U44
*118 ctl_u/U45
*119 ctl_u/U46
*120 ctl_u/U47
*121 ctl_u/U48
*122 ctl_u/U49
*123 ctl_u/U50
*124 ctl_u/U51
*125 ctl_u/U52
*126 ctl_u/U53
*127 ctl_u/U54
*128 ctl_u/U55
*129 ctl_u/U56
*130 ctl_u/U57
*131 ctl_u/U58
*132 ctl_u/U59
*133 ctl_u/U60
*134 ctl_u/U61
*135 ctl_u/U62
*136 ctl_u/U63
*137 ctl_u/U64
*138 ctl_u/U65
*139 ctl_u/U66
*140 ctl_u/U67
*141 ctl_u/U68
*142 ctl_u/U69
*143 ctl_u/U70
*144 ctl_u/U71
*145 ctl_u/U72
*146 ctl_u/U73
*147 ctl_u/U74
*148 ctl_u/U75
*149 ctl_u/U76
*150 ctl_u/U77
*151 ctl_u/U80
*152 ctl_u/U81
*153 ctl_u/add_156_S2/U1_1_8
*154 ctl_u/add_156_S2/U1_1_9
*155 ctl_u/add_156_S2/U1_1_10
*156 ctl_u/add_156_S2/U1_1_7
*157 ctl_u/add_156_S2/U1_1_6
*158 ctl_u/add_156_S2/U1_1_5
*159 ctl_u/add_156_S2/U1_1_2
*160 ctl_u/add_156_S2/U1_1_4
*161 ctl_u/add_156_S2/U1_1_1
*162 ctl_u/add_156_S2/U1_1_11
*163 ctl_u/add_156_S2/U1_1_3
*164 ctl_u/add_156_S2/U1
*165 ctl_u/add_156_S2/U2
*166 pe_u/pe0/Accumulate_reg[0]
*167 pe_u/pe0/Rpipe_reg[7]
*168 pe_u/pe0/Rpipe_reg[6]
*169 pe_u/pe0/Rpipe_reg[5]
*170 pe_u/pe0/Rpipe_reg[4]
*171 pe_u/pe0/Rpipe_reg[3]
*172 pe_u/pe0/Rpipe_reg[2]
*173 pe_u/pe0/Rpipe_reg[1]
*174 pe_u/pe0/Accumulate_reg[7]
*175 pe_u/pe0/Accumulate_reg[6]
*176 pe_u/pe0/Accumulate_reg[5]
*177 pe_u/pe0/Accumulate_reg[4]
*178 pe_u/pe0/Accumulate_reg[3]
*179 pe_u/pe0/Accumulate_reg[2]
*180 pe_u/pe0/Accumulate_reg[1]
*181 pe_u/pe0/Rpipe_reg[0]
*182 pe_u/pe0/U5
*183 pe_u/pe0/U6
*184 pe_u/pe0/U7
*185 pe_u/pe0/U8
*186 pe_u/pe0/U9
*187 pe_u/pe0/U10
*188 pe_u/pe0/U11
*189 pe_u/pe0/U12
*190 pe_u/pe0/U13
*191 pe_u/pe0/U14
*192 pe_u/pe0/U15
*193 pe_u/pe0/U16
*194 pe_u/pe0/U17
*195 pe_u/pe0/U18
*196 pe_u/pe0/U19
*197 pe_u/pe0/U20
*198 pe_u/pe0/U21
*199 pe_u/pe0/U22
*200 pe_u/pe0/U23
*201 pe_u/pe0/add_56/U1_3
*202 pe_u/pe0/add_56/U1_2
*203 pe_u/pe0/add_56/U1_1
*204 pe_u/pe0/add_56/U1_7
*205 pe_u/pe0/add_56/U1_6
*206 pe_u/pe0/add_56/U1_5
*207 pe_u/pe0/add_56/U1_4
*208 pe_u/pe0/add_56/U1
*209 pe_u/pe0/add_56/U2
*210 pe_u/pe0/sub_50/U2_7
*211 pe_u/pe0/sub_50/U2_6
*212 pe_u/pe0/sub_50/U2_5
*213 pe_u/pe0/sub_50/U2_4
*214 pe_u/pe0/sub_50/U2_3
*215 pe_u/pe0/sub_50/U2_2
*216 pe_u/pe0/sub_50/U2_1
*217 pe_u/pe0/sub_50/U1
*218 pe_u/pe0/sub_50/U2
*219 pe_u/pe0/sub_50/U3
*220 pe_u/pe0/sub_50/U4
*221 pe_u/pe0/sub_50/U5
*222 pe_u/pe0/sub_50/U6
*223 pe_u/pe0/sub_50/U7
*224 pe_u/pe0/sub_50/U8
*225 pe_u/pe0/sub_50/U9
*226 pe_u/pe0/sub_50/U10
*227 pe_u/pe1/Accumulate_reg[0]
*228 pe_u/pe1/Rpipe_reg[7]
*229 pe_u/pe1/Rpipe_reg[6]
*230 pe_u/pe1/Rpipe_reg[5]
*231 pe_u/pe1/Rpipe_reg[4]
*232 pe_u/pe1/Rpipe_reg[3]
*233 pe_u/pe1/Rpipe_reg[2]
*234 pe_u/pe1/Rpipe_reg[1]
*235 pe_u/pe1/Accumulate_reg[7]
*236 pe_u/pe1/Accumulate_reg[6]
*237 pe_u/pe1/Accumulate_reg[5]
*238 pe_u/pe1/Accumulate_reg[4]
*239 pe_u/pe1/Accumulate_reg[3]
*240 pe_u/pe1/Accumulate_reg[2]
*241 pe_u/pe1/Accumulate_reg[1]
*242 pe_u/pe1/Rpipe_reg[0]
*243 pe_u/pe1/U5
*244 pe_u/pe1/U6
*245 pe_u/pe1/U7
*246 pe_u/pe1/U8
*247 pe_u/pe1/U9
*248 pe_u/pe1/U10
*249 pe_u/pe1/U11
*250 pe_u/pe1/U12
*251 pe_u/pe1/U13
*252 pe_u/pe1/U14
*253 pe_u/pe1/U15
*254 pe_u/pe1/U16
*255 pe_u/pe1/U17
*256 pe_u/pe1/U18
*257 pe_u/pe1/U19
*258 pe_u/pe1/U20
*259 pe_u/pe1/U21
*260 pe_u/pe1/U22
*261 pe_u/pe1/U23
*262 pe_u/pe1/add_56/U1_5
*263 pe_u/pe1/add_56/U1_4
*264 pe_u/pe1/add_56/U1_3
*265 pe_u/pe1/add_56/U1_2
*266 pe_u/pe1/add_56/U1_1
*267 pe_u/pe1/add_56/U1_7
*268 pe_u/pe1/add_56/U1_6
*269 pe_u/pe1/add_56/U1
*270 pe_u/pe1/add_56/U2
*271 pe_u/pe1/sub_50/U2_7
*272 pe_u/pe1/sub_50/U2_6
*273 pe_u/pe1/sub_50/U2_5
*274 pe_u/pe1/sub_50/U2_4
*275 pe_u/pe1/sub_50/U2_3
*276 pe_u/pe1/sub_50/U2_2
*277 pe_u/pe1/sub_50/U2_1
*278 pe_u/pe1/sub_50/U1
*279 pe_u/pe1/sub_50/U2
*280 pe_u/pe1/sub_50/U3
*281 pe_u/pe1/sub_50/U4
*282 pe_u/pe1/sub_50/U5
*283 pe_u/pe1/sub_50/U6
*284 pe_u/pe1/sub_50/U7
*285 pe_u/pe1/sub_50/U8
*286 pe_u/pe1/sub_50/U9
*287 pe_u/pe1/sub_50/U10
*288 pe_u/pe2/Accumulate_reg[0]
*289 pe_u/pe2/Accumulate_reg[7]
*290 pe_u/pe2/Accumulate_reg[6]
*291 pe_u/pe2/Accumulate_reg[5]
*292 pe_u/pe2/Accumulate_reg[4]
*293 pe_u/pe2/Accumulate_reg[3]
*294 pe_u/pe2/Accumulate_reg[2]
*295 pe_u/pe2/Accumulate_reg[1]
*296 pe_u/pe2/Rpipe_reg[7]
*297 pe_u/pe2/Rpipe_reg[6]
*298 pe_u/pe2/Rpipe_reg[5]
*299 pe_u/pe2/Rpipe_reg[4]
*300 pe_u/pe2/Rpipe_reg[3]
*301 pe_u/pe2/Rpipe_reg[2]
*302 pe_u/pe2/Rpipe_reg[1]
*303 pe_u/pe2/Rpipe_reg[0]
*304 pe_u/pe2/U5
*305 pe_u/pe2/U6
*306 pe_u/pe2/U7
*307 pe_u/pe2/U8
*308 pe_u/pe2/U9
*309 pe_u/pe2/U10
*310 pe_u/pe2/U11
*311 pe_u/pe2/U12
*312 pe_u/pe2/U13
*313 pe_u/pe2/U14
*314 pe_u/pe2/U15
*315 pe_u/pe2/U16
*316 pe_u/pe2/U17
*317 pe_u/pe2/U18
*318 pe_u/pe2/U19
*319 pe_u/pe2/U20
*320 pe_u/pe2/U21
*321 pe_u/pe2/U22
*322 pe_u/pe2/U23
*323 pe_u/pe2/add_56/U1_4
*324 pe_u/pe2/add_56/U1_3
*325 pe_u/pe2/add_56/U1_2
*326 pe_u/pe2/add_56/U1_1
*327 pe_u/pe2/add_56/U1_7
*328 pe_u/pe2/add_56/U1_6
*329 pe_u/pe2/add_56/U1_5
*330 pe_u/pe2/add_56/U1
*331 pe_u/pe2/add_56/U2
*332 pe_u/pe2/sub_50/U2_7
*333 pe_u/pe2/sub_50/U2_6
*334 pe_u/pe2/sub_50/U2_5
*335 pe_u/pe2/sub_50/U2_4
*336 pe_u/pe2/sub_50/U2_3
*337 pe_u/pe2/sub_50/U2_2
*338 pe_u/pe2/sub_50/U2_1
*339 pe_u/pe2/sub_50/U1
*340 pe_u/pe2/sub_50/U2
*341 pe_u/pe2/sub_50/U3
*342 pe_u/pe2/sub_50/U4
*343 pe_u/pe2/sub_50/U5
*344 pe_u/pe2/sub_50/U6
*345 pe_u/pe2/sub_50/U7
*346 pe_u/pe2/sub_50/U8
*347 pe_u/pe2/sub_50/U9
*348 pe_u/pe2/sub_50/U10
*349 pe_u/pe3/Accumulate_reg[0]
*350 pe_u/pe3/Rpipe_reg[7]
*351 pe_u/pe3/Rpipe_reg[6]
*352 pe_u/pe3/Rpipe_reg[5]
*353 pe_u/pe3/Rpipe_reg[4]
*354 pe_u/pe3/Rpipe_reg[3]
*355 pe_u/pe3/Rpipe_reg[2]
*356 pe_u/pe3/Rpipe_reg[1]
*357 pe_u/pe3/Accumulate_reg[7]
*358 pe_u/pe3/Accumulate_reg[6]
*359 pe_u/pe3/Accumulate_reg[5]
*360 pe_u/pe3/Accumulate_reg[4]
*361 pe_u/pe3/Accumulate_reg[3]
*362 pe_u/pe3/Accumulate_reg[2]
*363 pe_u/pe3/Accumulate_reg[1]
*364 pe_u/pe3/Rpipe_reg[0]
*365 pe_u/pe3/U5
*366 pe_u/pe3/U6
*367 pe_u/pe3/U7
*368 pe_u/pe3/U8
*369 pe_u/pe3/U9
*370 pe_u/pe3/U10
*371 pe_u/pe3/U11
*372 pe_u/pe3/U12
*373 pe_u/pe3/U13
*374 pe_u/pe3/U14
*375 pe_u/pe3/U15
*376 pe_u/pe3/U16
*377 pe_u/pe3/U17
*378 pe_u/pe3/U18
*379 pe_u/pe3/U19
*380 pe_u/pe3/U20
*381 pe_u/pe3/U21
*382 pe_u/pe3/U22
*383 pe_u/pe3/U23
*384 pe_u/pe3/add_56/U1_6
*385 pe_u/pe3/add_56/U1_5
*386 pe_u/pe3/add_56/U1_4
*387 pe_u/pe3/add_56/U1_3
*388 pe_u/pe3/add_56/U1_2
*389 pe_u/pe3/add_56/U1_1
*390 pe_u/pe3/add_56/U1_7
*391 pe_u/pe3/add_56/U1
*392 pe_u/pe3/add_56/U2
*393 pe_u/pe3/sub_50/U2_7
*394 pe_u/pe3/sub_50/U2_6
*395 pe_u/pe3/sub_50/U2_5
*396 pe_u/pe3/sub_50/U2_4
*397 pe_u/pe3/sub_50/U2_3
*398 pe_u/pe3/sub_50/U2_2
*399 pe_u/pe3/sub_50/U2_1
*400 pe_u/pe3/sub_50/U1
*401 pe_u/pe3/sub_50/U2
*402 pe_u/pe3/sub_50/U3
*403 pe_u/pe3/sub_50/U4
*404 pe_u/pe3/sub_50/U5
*405 pe_u/pe3/sub_50/U6
*406 pe_u/pe3/sub_50/U7
*407 pe_u/pe3/sub_50/U8
*408 pe_u/pe3/sub_50/U9
*409 pe_u/pe3/sub_50/U10
*410 pe_u/pe4/Accumulate_reg[0]
*411 pe_u/pe4/Accumulate_reg[7]
*412 pe_u/pe4/Accumulate_reg[6]
*413 pe_u/pe4/Accumulate_reg[5]
*414 pe_u/pe4/Accumulate_reg[4]
*415 pe_u/pe4/Accumulate_reg[3]
*416 pe_u/pe4/Accumulate_reg[2]
*417 pe_u/pe4/Accumulate_reg[1]
*418 pe_u/pe4/Rpipe_reg[7]
*419 pe_u/pe4/Rpipe_reg[6]
*420 pe_u/pe4/Rpipe_reg[5]
*421 pe_u/pe4/Rpipe_reg[4]
*422 pe_u/pe4/Rpipe_reg[3]
*423 pe_u/pe4/Rpipe_reg[2]
*424 pe_u/pe4/Rpipe_reg[1]
*425 pe_u/pe4/Rpipe_reg[0]
*426 pe_u/pe4/U5
*427 pe_u/pe4/U6
*428 pe_u/pe4/U7
*429 pe_u/pe4/U8
*430 pe_u/pe4/U9
*431 pe_u/pe4/U10
*432 pe_u/pe4/U11
*433 pe_u/pe4/U12
*434 pe_u/pe4/U13
*435 pe_u/pe4/U14
*436 pe_u/pe4/U15
*437 pe_u/pe4/U16
*438 pe_u/pe4/U17
*439 pe_u/pe4/U18
*440 pe_u/pe4/U19
*441 pe_u/pe4/U20
*442 pe_u/pe4/U21
*443 pe_u/pe4/U22
*444 pe_u/pe4/U23
*445 pe_u/pe4/add_56/U1_7
*446 pe_u/pe4/add_56/U1_6
*447 pe_u/pe4/add_56/U1_5
*448 pe_u/pe4/add_56/U1_4
*449 pe_u/pe4/add_56/U1_3
*450 pe_u/pe4/add_56/U1_2
*451 pe_u/pe4/add_56/U1_1
*452 pe_u/pe4/add_56/U1
*453 pe_u/pe4/add_56/U2
*454 pe_u/pe4/sub_50/U2_6
*455 pe_u/pe4/sub_50/U2_5
*456 pe_u/pe4/sub_50/U2_4
*457 pe_u/pe4/sub_50/U2_3
*458 pe_u/pe4/sub_50/U2_2
*459 pe_u/pe4/sub_50/U2_1
*460 pe_u/pe4/sub_50/U2_7
*461 pe_u/pe4/sub_50/U1
*462 pe_u/pe4/sub_50/U2
*463 pe_u/pe4/sub_50/U3
*464 pe_u/pe4/sub_50/U4
*465 pe_u/pe4/sub_50/U5
*466 pe_u/pe4/sub_50/U6
*467 pe_u/pe4/sub_50/U7
*468 pe_u/pe4/sub_50/U8
*469 pe_u/pe4/sub_50/U9
*470 pe_u/pe4/sub_50/U10
*471 pe_u/pe5/Accumulate_reg[0]
*472 pe_u/pe5/Rpipe_reg[7]
*473 pe_u/pe5/Rpipe_reg[6]
*474 pe_u/pe5/Rpipe_reg[5]
*475 pe_u/pe5/Rpipe_reg[4]
*476 pe_u/pe5/Rpipe_reg[3]
*477 pe_u/pe5/Rpipe_reg[2]
*478 pe_u/pe5/Rpipe_reg[1]
*479 pe_u/pe5/Accumulate_reg[7]
*480 pe_u/pe5/Accumulate_reg[6]
*481 pe_u/pe5/Accumulate_reg[5]
*482 pe_u/pe5/Accumulate_reg[4]
*483 pe_u/pe5/Accumulate_reg[3]
*484 pe_u/pe5/Accumulate_reg[2]
*485 pe_u/pe5/Accumulate_reg[1]
*486 pe_u/pe5/Rpipe_reg[0]
*487 pe_u/pe5/U5
*488 pe_u/pe5/U6
*489 pe_u/pe5/U7
*490 pe_u/pe5/U8
*491 pe_u/pe5/U9
*492 pe_u/pe5/U10
*493 pe_u/pe5/U11
*494 pe_u/pe5/U12
*495 pe_u/pe5/U13
*496 pe_u/pe5/U14
*497 pe_u/pe5/U15
*498 pe_u/pe5/U16
*499 pe_u/pe5/U17
*500 pe_u/pe5/U18
*501 pe_u/pe5/U19
*502 pe_u/pe5/U20
*503 pe_u/pe5/U21
*504 pe_u/pe5/U22
*505 pe_u/pe5/U23
*506 pe_u/pe5/add_56/U1_7
*507 pe_u/pe5/add_56/U1_6
*508 pe_u/pe5/add_56/U1_5
*509 pe_u/pe5/add_56/U1_4
*510 pe_u/pe5/add_56/U1_3
*511 pe_u/pe5/add_56/U1_2
*512 pe_u/pe5/add_56/U1_1
*513 pe_u/pe5/add_56/U1
*514 pe_u/pe5/add_56/U2
*515 pe_u/pe5/sub_50/U2_6
*516 pe_u/pe5/sub_50/U2_5
*517 pe_u/pe5/sub_50/U2_4
*518 pe_u/pe5/sub_50/U2_3
*519 pe_u/pe5/sub_50/U2_2
*520 pe_u/pe5/sub_50/U2_1
*521 pe_u/pe5/sub_50/U2_7
*522 pe_u/pe5/sub_50/U1
*523 pe_u/pe5/sub_50/U2
*524 pe_u/pe5/sub_50/U3
*525 pe_u/pe5/sub_50/U4
*526 pe_u/pe5/sub_50/U5
*527 pe_u/pe5/sub_50/U6
*528 pe_u/pe5/sub_50/U7
*529 pe_u/pe5/sub_50/U8
*530 pe_u/pe5/sub_50/U9
*531 pe_u/pe5/sub_50/U10
*532 pe_u/pe6/Accumulate_reg[0]
*533 pe_u/pe6/Rpipe_reg[7]
*534 pe_u/pe6/Rpipe_reg[6]
*535 pe_u/pe6/Rpipe_reg[5]
*536 pe_u/pe6/Rpipe_reg[4]
*537 pe_u/pe6/Rpipe_reg[3]
*538 pe_u/pe6/Rpipe_reg[2]
*539 pe_u/pe6/Rpipe_reg[1]
*540 pe_u/pe6/Accumulate_reg[7]
*541 pe_u/pe6/Accumulate_reg[6]
*542 pe_u/pe6/Accumulate_reg[5]
*543 pe_u/pe6/Accumulate_reg[4]
*544 pe_u/pe6/Accumulate_reg[3]
*545 pe_u/pe6/Accumulate_reg[2]
*546 pe_u/pe6/Accumulate_reg[1]
*547 pe_u/pe6/Rpipe_reg[0]
*548 pe_u/pe6/U5
*549 pe_u/pe6/U6
*550 pe_u/pe6/U7
*551 pe_u/pe6/U8
*552 pe_u/pe6/U9
*553 pe_u/pe6/U10
*554 pe_u/pe6/U11
*555 pe_u/pe6/U12
*556 pe_u/pe6/U13
*557 pe_u/pe6/U14
*558 pe_u/pe6/U15
*559 pe_u/pe6/U16
*560 pe_u/pe6/U17
*561 pe_u/pe6/U18
*562 pe_u/pe6/U19
*563 pe_u/pe6/U20
*564 pe_u/pe6/U21
*565 pe_u/pe6/U22
*566 pe_u/pe6/U23
*567 pe_u/pe6/add_56/U1_7
*568 pe_u/pe6/add_56/U1_6
*569 pe_u/pe6/add_56/U1_5
*570 pe_u/pe6/add_56/U1_4
*571 pe_u/pe6/add_56/U1_3
*572 pe_u/pe6/add_56/U1_2
*573 pe_u/pe6/add_56/U1_1
*574 pe_u/pe6/add_56/U1
*575 pe_u/pe6/add_56/U2
*576 pe_u/pe6/sub_50/U2_6
*577 pe_u/pe6/sub_50/U2_5
*578 pe_u/pe6/sub_50/U2_4
*579 pe_u/pe6/sub_50/U2_3
*580 pe_u/pe6/sub_50/U2_2
*581 pe_u/pe6/sub_50/U2_1
*582 pe_u/pe6/sub_50/U2_7
*583 pe_u/pe6/sub_50/U1
*584 pe_u/pe6/sub_50/U2
*585 pe_u/pe6/sub_50/U3
*586 pe_u/pe6/sub_50/U4
*587 pe_u/pe6/sub_50/U5
*588 pe_u/pe6/sub_50/U6
*589 pe_u/pe6/sub_50/U7
*590 pe_u/pe6/sub_50/U8
*591 pe_u/pe6/sub_50/U9
*592 pe_u/pe6/sub_50/U10
*593 pe_u/pe7/Accumulate_reg[0]
*594 pe_u/pe7/Accumulate_reg[7]
*595 pe_u/pe7/Accumulate_reg[6]
*596 pe_u/pe7/Accumulate_reg[5]
*597 pe_u/pe7/Accumulate_reg[4]
*598 pe_u/pe7/Accumulate_reg[3]
*599 pe_u/pe7/Accumulate_reg[2]
*600 pe_u/pe7/Accumulate_reg[1]
*601 pe_u/pe7/Rpipe_reg[7]
*602 pe_u/pe7/Rpipe_reg[6]
*603 pe_u/pe7/Rpipe_reg[5]
*604 pe_u/pe7/Rpipe_reg[4]
*605 pe_u/pe7/Rpipe_reg[3]
*606 pe_u/pe7/Rpipe_reg[2]
*607 pe_u/pe7/Rpipe_reg[1]
*608 pe_u/pe7/Rpipe_reg[0]
*609 pe_u/pe7/U5
*610 pe_u/pe7/U6
*611 pe_u/pe7/U7
*612 pe_u/pe7/U8
*613 pe_u/pe7/U9
*614 pe_u/pe7/U10
*615 pe_u/pe7/U11
*616 pe_u/pe7/U12
*617 pe_u/pe7/U13
*618 pe_u/pe7/U14
*619 pe_u/pe7/U15
*620 pe_u/pe7/U16
*621 pe_u/pe7/U17
*622 pe_u/pe7/U18
*623 pe_u/pe7/U19
*624 pe_u/pe7/U20
*625 pe_u/pe7/U21
*626 pe_u/pe7/U22
*627 pe_u/pe7/U23
*628 pe_u/pe7/add_56/U1_7
*629 pe_u/pe7/add_56/U1_6
*630 pe_u/pe7/add_56/U1_5
*631 pe_u/pe7/add_56/U1_4
*632 pe_u/pe7/add_56/U1_3
*633 pe_u/pe7/add_56/U1_2
*634 pe_u/pe7/add_56/U1_1
*635 pe_u/pe7/add_56/U1
*636 pe_u/pe7/add_56/U2
*637 pe_u/pe7/sub_50/U2_1
*638 pe_u/pe7/sub_50/U2_6
*639 pe_u/pe7/sub_50/U2_5
*640 pe_u/pe7/sub_50/U2_4
*641 pe_u/pe7/sub_50/U2_3
*642 pe_u/pe7/sub_50/U2_2
*643 pe_u/pe7/sub_50/U2_7
*644 pe_u/pe7/sub_50/U1
*645 pe_u/pe7/sub_50/U2
*646 pe_u/pe7/sub_50/U3
*647 pe_u/pe7/sub_50/U4
*648 pe_u/pe7/sub_50/U5
*649 pe_u/pe7/sub_50/U6
*650 pe_u/pe7/sub_50/U7
*651 pe_u/pe7/sub_50/U8
*652 pe_u/pe7/sub_50/U9
*653 pe_u/pe7/sub_50/U10
*654 pe_u/pe8/Accumulate_reg[0]
*655 pe_u/pe8/Rpipe_reg[7]
*656 pe_u/pe8/Rpipe_reg[6]
*657 pe_u/pe8/Rpipe_reg[5]
*658 pe_u/pe8/Rpipe_reg[4]
*659 pe_u/pe8/Rpipe_reg[3]
*660 pe_u/pe8/Rpipe_reg[2]
*661 pe_u/pe8/Rpipe_reg[1]
*662 pe_u/pe8/Accumulate_reg[7]
*663 pe_u/pe8/Accumulate_reg[6]
*664 pe_u/pe8/Accumulate_reg[5]
*665 pe_u/pe8/Accumulate_reg[4]
*666 pe_u/pe8/Accumulate_reg[3]
*667 pe_u/pe8/Accumulate_reg[2]
*668 pe_u/pe8/Accumulate_reg[1]
*669 pe_u/pe8/Rpipe_reg[0]
*670 pe_u/pe8/U5
*671 pe_u/pe8/U6
*672 pe_u/pe8/U7
*673 pe_u/pe8/U8
*674 pe_u/pe8/U9
*675 pe_u/pe8/U10
*676 pe_u/pe8/U11
*677 pe_u/pe8/U12
*678 pe_u/pe8/U13
*679 pe_u/pe8/U14
*680 pe_u/pe8/U15
*681 pe_u/pe8/U16
*682 pe_u/pe8/U17
*683 pe_u/pe8/U18
*684 pe_u/pe8/U19
*685 pe_u/pe8/U20
*686 pe_u/pe8/U21
*687 pe_u/pe8/U22
*688 pe_u/pe8/U23
*689 pe_u/pe8/add_56/U1_7
*690 pe_u/pe8/add_56/U1_6
*691 pe_u/pe8/add_56/U1_5
*692 pe_u/pe8/add_56/U1_4
*693 pe_u/pe8/add_56/U1_3
*694 pe_u/pe8/add_56/U1_2
*695 pe_u/pe8/add_56/U1_1
*696 pe_u/pe8/add_56/U1
*697 pe_u/pe8/add_56/U2
*698 pe_u/pe8/sub_50/U2_6
*699 pe_u/pe8/sub_50/U2_5
*700 pe_u/pe8/sub_50/U2_4
*701 pe_u/pe8/sub_50/U2_3
*702 pe_u/pe8/sub_50/U2_2
*703 pe_u/pe8/sub_50/U2_1
*704 pe_u/pe8/sub_50/U2_7
*705 pe_u/pe8/sub_50/U1
*706 pe_u/pe8/sub_50/U2
*707 pe_u/pe8/sub_50/U3
*708 pe_u/pe8/sub_50/U4
*709 pe_u/pe8/sub_50/U5
*710 pe_u/pe8/sub_50/U6
*711 pe_u/pe8/sub_50/U7
*712 pe_u/pe8/sub_50/U8
*713 pe_u/pe8/sub_50/U9
*714 pe_u/pe8/sub_50/U10
*715 pe_u/pe9/Accumulate_reg[0]
*716 pe_u/pe9/Rpipe_reg[7]
*717 pe_u/pe9/Rpipe_reg[6]
*718 pe_u/pe9/Rpipe_reg[5]
*719 pe_u/pe9/Rpipe_reg[4]
*720 pe_u/pe9/Rpipe_reg[3]
*721 pe_u/pe9/Rpipe_reg[2]
*722 pe_u/pe9/Rpipe_reg[1]
*723 pe_u/pe9/Accumulate_reg[7]
*724 pe_u/pe9/Accumulate_reg[6]
*725 pe_u/pe9/Accumulate_reg[5]
*726 pe_u/pe9/Accumulate_reg[4]
*727 pe_u/pe9/Accumulate_reg[3]
*728 pe_u/pe9/Accumulate_reg[2]
*729 pe_u/pe9/Accumulate_reg[1]
*730 pe_u/pe9/Rpipe_reg[0]
*731 pe_u/pe9/U5
*732 pe_u/pe9/U6
*733 pe_u/pe9/U7
*734 pe_u/pe9/U8
*735 pe_u/pe9/U9
*736 pe_u/pe9/U10
*737 pe_u/pe9/U11
*738 pe_u/pe9/U12
*739 pe_u/pe9/U13
*740 pe_u/pe9/U14
*741 pe_u/pe9/U15
*742 pe_u/pe9/U16
*743 pe_u/pe9/U17
*744 pe_u/pe9/U18
*745 pe_u/pe9/U19
*746 pe_u/pe9/U20
*747 pe_u/pe9/U21
*748 pe_u/pe9/U22
*749 pe_u/pe9/U23
*750 pe_u/pe9/add_56/U1_7
*751 pe_u/pe9/add_56/U1_6
*752 pe_u/pe9/add_56/U1_5
*753 pe_u/pe9/add_56/U1_4
*754 pe_u/pe9/add_56/U1_3
*755 pe_u/pe9/add_56/U1_2
*756 pe_u/pe9/add_56/U1_1
*757 pe_u/pe9/add_56/U1
*758 pe_u/pe9/add_56/U2
*759 pe_u/pe9/sub_50/U2_6
*760 pe_u/pe9/sub_50/U2_5
*761 pe_u/pe9/sub_50/U2_4
*762 pe_u/pe9/sub_50/U2_3
*763 pe_u/pe9/sub_50/U2_2
*764 pe_u/pe9/sub_50/U2_1
*765 pe_u/pe9/sub_50/U2_7
*766 pe_u/pe9/sub_50/U1
*767 pe_u/pe9/sub_50/U2
*768 pe_u/pe9/sub_50/U3
*769 pe_u/pe9/sub_50/U4
*770 pe_u/pe9/sub_50/U5
*771 pe_u/pe9/sub_50/U6
*772 pe_u/pe9/sub_50/U7
*773 pe_u/pe9/sub_50/U8
*774 pe_u/pe9/sub_50/U9
*775 pe_u/pe9/sub_50/U10
*776 pe_u/pe10/Accumulate_reg[0]
*777 pe_u/pe10/Rpipe_reg[7]
*778 pe_u/pe10/Rpipe_reg[6]
*779 pe_u/pe10/Rpipe_reg[5]
*780 pe_u/pe10/Rpipe_reg[4]
*781 pe_u/pe10/Rpipe_reg[3]
*782 pe_u/pe10/Rpipe_reg[2]
*783 pe_u/pe10/Rpipe_reg[1]
*784 pe_u/pe10/Accumulate_reg[7]
*785 pe_u/pe10/Accumulate_reg[6]
*786 pe_u/pe10/Accumulate_reg[5]
*787 pe_u/pe10/Accumulate_reg[4]
*788 pe_u/pe10/Accumulate_reg[3]
*789 pe_u/pe10/Accumulate_reg[2]
*790 pe_u/pe10/Accumulate_reg[1]
*791 pe_u/pe10/Rpipe_reg[0]
*792 pe_u/pe10/U5
*793 pe_u/pe10/U6
*794 pe_u/pe10/U7
*795 pe_u/pe10/U8
*796 pe_u/pe10/U9
*797 pe_u/pe10/U10
*798 pe_u/pe10/U11
*799 pe_u/pe10/U12
*800 pe_u/pe10/U13
*801 pe_u/pe10/U14
*802 pe_u/pe10/U15
*803 pe_u/pe10/U16
*804 pe_u/pe10/U17
*805 pe_u/pe10/U18
*806 pe_u/pe10/U19
*807 pe_u/pe10/U20
*808 pe_u/pe10/U21
*809 pe_u/pe10/U22
*810 pe_u/pe10/U23
*811 pe_u/pe10/add_56/U1_7
*812 pe_u/pe10/add_56/U1_6
*813 pe_u/pe10/add_56/U1_5
*814 pe_u/pe10/add_56/U1_4
*815 pe_u/pe10/add_56/U1_3
*816 pe_u/pe10/add_56/U1_2
*817 pe_u/pe10/add_56/U1_1
*818 pe_u/pe10/add_56/U1
*819 pe_u/pe10/add_56/U2
*820 pe_u/pe10/sub_50/U2_6
*821 pe_u/pe10/sub_50/U2_5
*822 pe_u/pe10/sub_50/U2_4
*823 pe_u/pe10/sub_50/U2_3
*824 pe_u/pe10/sub_50/U2_2
*825 pe_u/pe10/sub_50/U2_1
*826 pe_u/pe10/sub_50/U2_7
*827 pe_u/pe10/sub_50/U1
*828 pe_u/pe10/sub_50/U2
*829 pe_u/pe10/sub_50/U3
*830 pe_u/pe10/sub_50/U4
*831 pe_u/pe10/sub_50/U5
*832 pe_u/pe10/sub_50/U6
*833 pe_u/pe10/sub_50/U7
*834 pe_u/pe10/sub_50/U8
*835 pe_u/pe10/sub_50/U9
*836 pe_u/pe10/sub_50/U10
*837 pe_u/pe11/Accumulate_reg[0]
*838 pe_u/pe11/Rpipe_reg[7]
*839 pe_u/pe11/Rpipe_reg[6]
*840 pe_u/pe11/Rpipe_reg[5]
*841 pe_u/pe11/Rpipe_reg[4]
*842 pe_u/pe11/Rpipe_reg[3]
*843 pe_u/pe11/Rpipe_reg[2]
*844 pe_u/pe11/Rpipe_reg[1]
*845 pe_u/pe11/Accumulate_reg[7]
*846 pe_u/pe11/Accumulate_reg[6]
*847 pe_u/pe11/Accumulate_reg[5]
*848 pe_u/pe11/Accumulate_reg[4]
*849 pe_u/pe11/Accumulate_reg[3]
*850 pe_u/pe11/Accumulate_reg[2]
*851 pe_u/pe11/Accumulate_reg[1]
*852 pe_u/pe11/Rpipe_reg[0]
*853 pe_u/pe11/U5
*854 pe_u/pe11/U6
*855 pe_u/pe11/U7
*856 pe_u/pe11/U8
*857 pe_u/pe11/U9
*858 pe_u/pe11/U10
*859 pe_u/pe11/U11
*860 pe_u/pe11/U12
*861 pe_u/pe11/U13
*862 pe_u/pe11/U14
*863 pe_u/pe11/U15
*864 pe_u/pe11/U16
*865 pe_u/pe11/U17
*866 pe_u/pe11/U18
*867 pe_u/pe11/U19
*868 pe_u/pe11/U20
*869 pe_u/pe11/U21
*870 pe_u/pe11/U22
*871 pe_u/pe11/U23
*872 pe_u/pe11/add_56/U1_7
*873 pe_u/pe11/add_56/U1_6
*874 pe_u/pe11/add_56/U1_5
*875 pe_u/pe11/add_56/U1_4
*876 pe_u/pe11/add_56/U1_3
*877 pe_u/pe11/add_56/U1_2
*878 pe_u/pe11/add_56/U1_1
*879 pe_u/pe11/add_56/U1
*880 pe_u/pe11/add_56/U2
*881 pe_u/pe11/sub_50/U2_6
*882 pe_u/pe11/sub_50/U2_5
*883 pe_u/pe11/sub_50/U2_4
*884 pe_u/pe11/sub_50/U2_3
*885 pe_u/pe11/sub_50/U2_2
*886 pe_u/pe11/sub_50/U2_1
*887 pe_u/pe11/sub_50/U2_7
*888 pe_u/pe11/sub_50/U1
*889 pe_u/pe11/sub_50/U2
*890 pe_u/pe11/sub_50/U3
*891 pe_u/pe11/sub_50/U4
*892 pe_u/pe11/sub_50/U5
*893 pe_u/pe11/sub_50/U6
*894 pe_u/pe11/sub_50/U7
*895 pe_u/pe11/sub_50/U8
*896 pe_u/pe11/sub_50/U9
*897 pe_u/pe11/sub_50/U10
*898 pe_u/pe12/Accumulate_reg[0]
*899 pe_u/pe12/Rpipe_reg[7]
*900 pe_u/pe12/Rpipe_reg[6]
*901 pe_u/pe12/Rpipe_reg[5]
*902 pe_u/pe12/Rpipe_reg[4]
*903 pe_u/pe12/Rpipe_reg[3]
*904 pe_u/pe12/Rpipe_reg[2]
*905 pe_u/pe12/Rpipe_reg[1]
*906 pe_u/pe12/Accumulate_reg[7]
*907 pe_u/pe12/Accumulate_reg[6]
*908 pe_u/pe12/Accumulate_reg[5]
*909 pe_u/pe12/Accumulate_reg[4]
*910 pe_u/pe12/Accumulate_reg[3]
*911 pe_u/pe12/Accumulate_reg[2]
*912 pe_u/pe12/Accumulate_reg[1]
*913 pe_u/pe12/Rpipe_reg[0]
*914 pe_u/pe12/U5
*915 pe_u/pe12/U6
*916 pe_u/pe12/U7
*917 pe_u/pe12/U8
*918 pe_u/pe12/U9
*919 pe_u/pe12/U10
*920 pe_u/pe12/U11
*921 pe_u/pe12/U12
*922 pe_u/pe12/U13
*923 pe_u/pe12/U14
*924 pe_u/pe12/U15
*925 pe_u/pe12/U16
*926 pe_u/pe12/U17
*927 pe_u/pe12/U18
*928 pe_u/pe12/U19
*929 pe_u/pe12/U20
*930 pe_u/pe12/U21
*931 pe_u/pe12/U22
*932 pe_u/pe12/U23
*933 pe_u/pe12/add_56/U1_7
*934 pe_u/pe12/add_56/U1_6
*935 pe_u/pe12/add_56/U1_5
*936 pe_u/pe12/add_56/U1_4
*937 pe_u/pe12/add_56/U1_3
*938 pe_u/pe12/add_56/U1_2
*939 pe_u/pe12/add_56/U1_1
*940 pe_u/pe12/add_56/U1
*941 pe_u/pe12/add_56/U2
*942 pe_u/pe12/sub_50/U2_6
*943 pe_u/pe12/sub_50/U2_5
*944 pe_u/pe12/sub_50/U2_4
*945 pe_u/pe12/sub_50/U2_3
*946 pe_u/pe12/sub_50/U2_2
*947 pe_u/pe12/sub_50/U2_1
*948 pe_u/pe12/sub_50/U2_7
*949 pe_u/pe12/sub_50/U1
*950 pe_u/pe12/sub_50/U2
*951 pe_u/pe12/sub_50/U3
*952 pe_u/pe12/sub_50/U4
*953 pe_u/pe12/sub_50/U5
*954 pe_u/pe12/sub_50/U6
*955 pe_u/pe12/sub_50/U7
*956 pe_u/pe12/sub_50/U8
*957 pe_u/pe12/sub_50/U9
*958 pe_u/pe12/sub_50/U10
*959 pe_u/pe13/Accumulate_reg[0]
*960 pe_u/pe13/Accumulate_reg[7]
*961 pe_u/pe13/Accumulate_reg[6]
*962 pe_u/pe13/Accumulate_reg[5]
*963 pe_u/pe13/Accumulate_reg[4]
*964 pe_u/pe13/Accumulate_reg[3]
*965 pe_u/pe13/Accumulate_reg[2]
*966 pe_u/pe13/Accumulate_reg[1]
*967 pe_u/pe13/Rpipe_reg[7]
*968 pe_u/pe13/Rpipe_reg[6]
*969 pe_u/pe13/Rpipe_reg[5]
*970 pe_u/pe13/Rpipe_reg[4]
*971 pe_u/pe13/Rpipe_reg[3]
*972 pe_u/pe13/Rpipe_reg[2]
*973 pe_u/pe13/Rpipe_reg[1]
*974 pe_u/pe13/Rpipe_reg[0]
*975 pe_u/pe13/U5
*976 pe_u/pe13/U6
*977 pe_u/pe13/U7
*978 pe_u/pe13/U8
*979 pe_u/pe13/U9
*980 pe_u/pe13/U10
*981 pe_u/pe13/U11
*982 pe_u/pe13/U12
*983 pe_u/pe13/U13
*984 pe_u/pe13/U14
*985 pe_u/pe13/U15
*986 pe_u/pe13/U16
*987 pe_u/pe13/U17
*988 pe_u/pe13/U18
*989 pe_u/pe13/U19
*990 pe_u/pe13/U20
*991 pe_u/pe13/U21
*992 pe_u/pe13/U22
*993 pe_u/pe13/U23
*994 pe_u/pe13/add_56/U1_7
*995 pe_u/pe13/add_56/U1_6
*996 pe_u/pe13/add_56/U1_5
*997 pe_u/pe13/add_56/U1_4
*998 pe_u/pe13/add_56/U1_3
*999 pe_u/pe13/add_56/U1_2
*1000 pe_u/pe13/add_56/U1_1
*1001 pe_u/pe13/add_56/U1
*1002 pe_u/pe13/add_56/U2
*1003 pe_u/pe13/sub_50/U2_6
*1004 pe_u/pe13/sub_50/U2_5
*1005 pe_u/pe13/sub_50/U2_4
*1006 pe_u/pe13/sub_50/U2_3
*1007 pe_u/pe13/sub_50/U2_2
*1008 pe_u/pe13/sub_50/U2_1
*1009 pe_u/pe13/sub_50/U2_7
*1010 pe_u/pe13/sub_50/U1
*1011 pe_u/pe13/sub_50/U2
*1012 pe_u/pe13/sub_50/U3
*1013 pe_u/pe13/sub_50/U4
*1014 pe_u/pe13/sub_50/U5
*1015 pe_u/pe13/sub_50/U6
*1016 pe_u/pe13/sub_50/U7
*1017 pe_u/pe13/sub_50/U8
*1018 pe_u/pe13/sub_50/U9
*1019 pe_u/pe13/sub_50/U10
*1020 pe_u/pe14/Rpipe_reg[7]
*1021 pe_u/pe14/Rpipe_reg[6]
*1022 pe_u/pe14/Rpipe_reg[5]
*1023 pe_u/pe14/Rpipe_reg[4]
*1024 pe_u/pe14/Rpipe_reg[3]
*1025 pe_u/pe14/Rpipe_reg[2]
*1026 pe_u/pe14/Rpipe_reg[1]
*1027 pe_u/pe14/Rpipe_reg[0]
*1028 pe_u/pe14/Accumulate_reg[0]
*1029 pe_u/pe14/Accumulate_reg[7]
*1030 pe_u/pe14/Accumulate_reg[6]
*1031 pe_u/pe14/Accumulate_reg[5]
*1032 pe_u/pe14/Accumulate_reg[4]
*1033 pe_u/pe14/Accumulate_reg[3]
*1034 pe_u/pe14/Accumulate_reg[2]
*1035 pe_u/pe14/Accumulate_reg[1]
*1036 pe_u/pe14/U5
*1037 pe_u/pe14/U6
*1038 pe_u/pe14/U7
*1039 pe_u/pe14/U8
*1040 pe_u/pe14/U9
*1041 pe_u/pe14/U10
*1042 pe_u/pe14/U11
*1043 pe_u/pe14/U12
*1044 pe_u/pe14/U13
*1045 pe_u/pe14/U14
*1046 pe_u/pe14/U15
*1047 pe_u/pe14/U16
*1048 pe_u/pe14/U17
*1049 pe_u/pe14/U18
*1050 pe_u/pe14/U19
*1051 pe_u/pe14/U20
*1052 pe_u/pe14/U21
*1053 pe_u/pe14/U22
*1054 pe_u/pe14/U23
*1055 pe_u/pe14/add_56/U1_7
*1056 pe_u/pe14/add_56/U1_6
*1057 pe_u/pe14/add_56/U1_5
*1058 pe_u/pe14/add_56/U1_4
*1059 pe_u/pe14/add_56/U1_3
*1060 pe_u/pe14/add_56/U1_2
*1061 pe_u/pe14/add_56/U1_1
*1062 pe_u/pe14/add_56/U1
*1063 pe_u/pe14/add_56/U2
*1064 pe_u/pe14/sub_50/U2_6
*1065 pe_u/pe14/sub_50/U2_5
*1066 pe_u/pe14/sub_50/U2_4
*1067 pe_u/pe14/sub_50/U2_3
*1068 pe_u/pe14/sub_50/U2_2
*1069 pe_u/pe14/sub_50/U2_1
*1070 pe_u/pe14/sub_50/U2_7
*1071 pe_u/pe14/sub_50/U1
*1072 pe_u/pe14/sub_50/U2
*1073 pe_u/pe14/sub_50/U3
*1074 pe_u/pe14/sub_50/U4
*1075 pe_u/pe14/sub_50/U5
*1076 pe_u/pe14/sub_50/U6
*1077 pe_u/pe14/sub_50/U7
*1078 pe_u/pe14/sub_50/U8
*1079 pe_u/pe14/sub_50/U9
*1080 pe_u/pe14/sub_50/U10
*1081 pe_u/pe15/Accumulate_reg[0]
*1082 pe_u/pe15/Accumulate_reg[7]
*1083 pe_u/pe15/Accumulate_reg[6]
*1084 pe_u/pe15/Accumulate_reg[5]
*1085 pe_u/pe15/Accumulate_reg[4]
*1086 pe_u/pe15/Accumulate_reg[3]
*1087 pe_u/pe15/Accumulate_reg[2]
*1088 pe_u/pe15/Accumulate_reg[1]
*1089 pe_u/pe15/U5
*1090 pe_u/pe15/U6
*1091 pe_u/pe15/U7
*1092 pe_u/pe15/U8
*1093 pe_u/pe15/U9
*1094 pe_u/pe15/U10
*1095 pe_u/pe15/U11
*1096 pe_u/pe15/U12
*1097 pe_u/pe15/U13
*1098 pe_u/pe15/U14
*1099 pe_u/pe15/U15
*1100 pe_u/pe15/U16
*1101 pe_u/pe15/U17
*1102 pe_u/pe15/U18
*1103 pe_u/pe15/U19
*1104 pe_u/pe15/U20
*1105 pe_u/pe15/U21
*1106 pe_u/pe15/U22
*1107 pe_u/pe15/U23
*1108 pe_u/pe15/add_81/U1_7
*1109 pe_u/pe15/add_81/U1_6
*1110 pe_u/pe15/add_81/U1_5
*1111 pe_u/pe15/add_81/U1_4
*1112 pe_u/pe15/add_81/U1_3
*1113 pe_u/pe15/add_81/U1_2
*1114 pe_u/pe15/add_81/U1_1
*1115 pe_u/pe15/add_81/U1
*1116 pe_u/pe15/add_81/U2
*1117 pe_u/pe15/sub_75/U2_7
*1118 pe_u/pe15/sub_75/U2_6
*1119 pe_u/pe15/sub_75/U2_5
*1120 pe_u/pe15/sub_75/U2_4
*1121 pe_u/pe15/sub_75/U2_3
*1122 pe_u/pe15/sub_75/U2_2
*1123 pe_u/pe15/sub_75/U2_1
*1124 pe_u/pe15/sub_75/U1
*1125 pe_u/pe15/sub_75/U2
*1126 pe_u/pe15/sub_75/U3
*1127 pe_u/pe15/sub_75/U4
*1128 pe_u/pe15/sub_75/U5
*1129 pe_u/pe15/sub_75/U6
*1130 pe_u/pe15/sub_75/U7
*1131 pe_u/pe15/sub_75/U8
*1132 pe_u/pe15/sub_75/U9
*1133 pe_u/pe15/sub_75/U10
*1134 comp_u/motionY_reg[3]
*1135 comp_u/motionY_reg[2]
*1136 comp_u/motionY_reg[1]
*1137 comp_u/motionY_reg[0]
*1138 comp_u/motionX_reg[3]
*1139 comp_u/motionX_reg[2]
*1140 comp_u/motionX_reg[1]
*1141 comp_u/motionX_reg[0]
*1142 comp_u/BestDist_reg[7]
*1143 comp_u/BestDist_reg[6]
*1144 comp_u/BestDist_reg[5]
*1145 comp_u/BestDist_reg[4]
*1146 comp_u/BestDist_reg[3]
*1147 comp_u/BestDist_reg[2]
*1148 comp_u/BestDist_reg[1]
*1149 comp_u/BestDist_reg[0]
*1150 comp_u/U3
*1151 comp_u/U4
*1152 comp_u/U5
*1153 comp_u/U6
*1154 comp_u/U7
*1155 comp_u/U8
*1156 comp_u/U9
*1157 comp_u/U10
*1158 comp_u/U11
*1159 comp_u/U12
*1160 comp_u/U13
*1161 comp_u/U14
*1162 comp_u/U15
*1163 comp_u/U16
*1164 comp_u/U17
*1165 comp_u/U18
*1166 comp_u/U19
*1167 comp_u/U20
*1168 comp_u/U21
*1169 comp_u/U22
*1170 comp_u/U23
*1171 comp_u/U24
*1172 comp_u/U25
*1173 comp_u/U26
*1174 comp_u/U27
*1175 comp_u/U28
*1176 comp_u/U29
*1177 comp_u/U30
*1178 comp_u/U31
*1179 comp_u/U32
*1180 comp_u/U33
*1181 comp_u/U34
*1182 comp_u/U35
*1183 comp_u/U36
*1184 comp_u/U37
*1185 comp_u/U38
*1186 comp_u/U39
*1187 comp_u/U40
*1188 comp_u/U41
*1189 comp_u/U42
*1190 comp_u/U43
*1191 comp_u/U44
*1192 comp_u/U45
*1193 comp_u/U46
*1194 comp_u/U47
*1195 comp_u/U48
*1196 comp_u/U49
*1197 comp_u/U50
*1198 comp_u/U51
*1199 comp_u/U52
*1200 comp_u/U53
*1201 comp_u/U54
*1202 comp_u/U55
*1203 comp_u/U56
*1204 comp_u/U57
*1205 comp_u/U58
*1206 comp_u/U59
*1207 comp_u/U60
*1208 comp_u/U61
*1209 comp_u/U62
*1210 comp_u/U63
*1211 comp_u/U64
*1212 comp_u/U65
*1213 comp_u/U66
*1214 comp_u/U67
*1215 comp_u/U68
*1216 comp_u/U69
*1217 comp_u/U70
*1218 comp_u/U71
*1219 comp_u/U72
*1220 comp_u/U73
*1221 comp_u/U74
*1222 comp_u/U75
*1223 comp_u/U76
*1224 comp_u/U77
*1225 comp_u/U78
*1226 comp_u/U79
*1227 comp_u/U80
*1228 comp_u/U81
*1229 comp_u/U82
*1230 comp_u/U83
*1231 comp_u/U84
*1232 comp_u/U85
*1233 comp_u/U86
*1234 comp_u/U87
*1235 comp_u/U88
*1236 comp_u/U89
*1237 comp_u/U90
*1238 comp_u/U91
*1239 comp_u/U92
*1240 comp_u/U93
*1241 comp_u/U94
*1242 comp_u/U95
*1243 comp_u/U96
*1244 comp_u/U97
*1245 comp_u/U98
*1246 comp_u/U99
*1247 comp_u/U100
*1248 comp_u/U101
*1249 comp_u/U102
*1250 comp_u/U103
*1251 comp_u/U104
*1252 comp_u/U105
*1253 comp_u/U106
*1254 comp_u/U107
*1255 comp_u/U108
*1256 comp_u/U109
*1257 comp_u/U110
*1258 comp_u/U111
*1259 comp_u/U112
*1260 comp_u/U113
*1261 comp_u/U114
*1262 comp_u/U115
*1263 comp_u/U116
*1264 comp_u/U117
*1265 comp_u/U118
*1266 comp_u/U119
*1267 comp_u/U120
*1268 comp_u/U121
*1269 comp_u/U122
*1270 comp_u/U123
*1271 comp_u/U124
*1272 comp_u/U125
*1273 comp_u/U126
*1274 comp_u/U127
*1275 comp_u/U128
*1276 comp_u/U129
*1277 comp_u/U130
*1278 comp_u/U131
*1279 comp_u/U132
*1280 comp_u/U133
*1281 comp_u/U134
*1282 comp_u/U135
*1283 comp_u/U136
*1284 comp_u/U137
*1285 comp_u/U138
*1286 comp_u/U139
*1287 comp_u/U140
*1288 comp_u/U141
*1289 comp_u/U142
*1290 comp_u/U143
*1291 comp_u/U144
*1292 comp_u/U145
*1293 comp_u/U146
*1294 comp_u/U147
*1295 comp_u/U148
*1296 comp_u/U149
*1297 comp_u/U150
*1298 \*Logic0\*
*1299 CompStart
*1300 S1S2mux[15]
*1301 S1S2mux[14]
*1302 S1S2mux[13]
*1303 S1S2mux[12]
*1304 S1S2mux[11]
*1305 S1S2mux[10]
*1306 S1S2mux[9]
*1307 S1S2mux[8]
*1308 S1S2mux[7]
*1309 S1S2mux[6]
*1310 S1S2mux[5]
*1311 S1S2mux[4]